Version 4
SHEET 1 880 680
WIRE 448 -144 32 -144
WIRE 32 -96 32 -144
WIRE 448 16 448 -144
WIRE 32 32 32 -16
WIRE 32 144 32 112
WIRE 448 160 448 96
WIRE 32 272 32 224
WIRE 32 384 32 352
WIRE 208 384 32 384
WIRE 448 384 448 240
WIRE 448 384 208 384
WIRE 208 400 208 384
FLAG 208 400 0
SYMBOL voltage 32 16 R0
WINDOW 3 43 58 Left 2
WINDOW 123 0 0 Left 0
WINDOW 39 0 0 Left 0
SYMATTR Value SINE(0 240 15.92k)
SYMATTR InstName V1
SYMBOL voltage 32 128 R0
WINDOW 3 45 57 Left 2
WINDOW 123 0 0 Left 0
WINDOW 39 0 0 Left 0
SYMATTR Value SINE(0 80 47.75k 0 0 45)
SYMATTR InstName V3
SYMBOL voltage 32 256 R0
WINDOW 3 43 62 Left 2
WINDOW 123 0 0 Left 0
WINDOW 39 0 0 Left 0
SYMATTR Value SINE(0 25 79.58k 0 0 30)
SYMATTR InstName V5
SYMBOL res 432 0 R0
SYMATTR InstName R
SYMATTR Value 150
SYMBOL voltage 32 -112 R0
WINDOW 123 0 0 Left 0
WINDOW 39 0 0 Left 0
SYMATTR InstName V0
SYMATTR Value 50
SYMBOL ind 432 144 R0
SYMATTR InstName L
SYMATTR Value 2m
TEXT 128 -64 Left 2 !.tran 0 0.0100628 0.01
